LAMMPS (2 Aug 2023)
# test input, created by automated python program

units	 real
atom_style	 full

pair_style lj/charmm/coul/charmm/implicit 8.0 10.0

bond_style harmonic

angle_style harmonic

boundary        p p p

read_data       myLNP.dat
Reading data file ...
  orthogonal box = (-200 -200 -200) to (200 200 200)
  reading atoms ...
  14734 atoms
  scanning bonds ...
  scanning angles ...
  reading bonds ...
  7156 bonds
  reading angles ...
  3578 angles
Finding 1-2 1-3 1-4 neighbors ...
     2 = max # of 1-2 neighbors
     1 = max # of 1-3 neighbors
     1 = max # of 1-4 neighbors
     2 = max # of special neighbors

pair_coeff 1 1 1.00 10.0
pair_coeff 1 2 1.00 10.0
pair_coeff 2 3 1.00 10.0
pair_coeff 2 2 1.00 10.0
pair_coeff 3 3 1.00 10.0
pair_coeff 1 3 1.00 10.0

thermo_style custom step temp ebond epair pe ke etotal press
thermo          100
thermo_modify flush yes

dump            1 all dcd 20 cg_test.dcd
dump_modify     1 unwrap yes sort id
dump mydmp all atom 10 dump.min.lammpstrj

minimize 10.0 1.0e-4 1000 100000
Generated 0 of 3 mixed pair_coeff terms from arithmetic mixing rule
Step          Temp          E_bond         E_pair         PotEng         KinEng         TotEng         Press
0   0              0.057808353    2.4321538e+16  2.4321538e+16  0              2.4321538e+16  1.0423058e+14
Loop time of 0.0116 on 1 procs for 1 steps with 14734 atoms

Minimization stats:
  Stopping criterion = energy tolerance
  Energy initial, next-to-last, final =
  Force two-norm initial, final = 5.0570627e+17 1.4983103e+17
  Force max component initial, final = 2.4121492e+17 7.2885753e+16
  Final line search alpha, max atom move = 1.0364202e-19 0.0075540263
  Iterations, force evaluations = 1 3

minimize 0.0 1.0e-8 1000 100000
Generated 0 of 3 mixed pair_coeff terms from arithmetic mixing rule
Step          Temp          E_bond         E_pair         PotEng         KinEng         TotEng         Press
1   0              0.057801797    9.2844577e+15  9.2844577e+15  0              9.2844577e+15  3.9788785e+13
Averages over the last 6 of 12 rows, steps 600 to 1001:
Temp E_bond E_pair PotEng KinEng TotEng Press
0 157722 228191 392800 0 392800 1719.37
Loop time of 2.47487 on 1 procs for 1000 steps with 14734 atoms

Minimization stats:
  Stopping criterion = max iterations
  Energy initial, next-to-last, final =
  Force two-norm initial, final = 1.4983103e+17 495.51134
  Force max component initial, final = 7.2885753e+16 23.920108
  Final line search alpha, max atom move = 0.0042613964 0.10193306
  Iterations, force evaluations = 1000 1005

minimize 1e-12 1.0e-10 1000 10000
Generated 0 of 3 mixed pair_coeff terms from arithmetic mixing rule
Step          Temp          E_bond         E_pair         PotEng         KinEng         TotEng         Press
1001   0              32779.031      111647.29      152811.85      0              152811.85      1140.3247
Averages over the last 6 of 12 rows, steps 1600 to 2001:
Temp E_bond E_pair PotEng KinEng TotEng Press
0 11.8536 392.804 541.401 0 541.401 16.7166
Loop time of 2.04408 on 1 procs for 1000 steps with 14734 atoms

Minimization stats:
  Stopping criterion = max iterations
  Energy initial, next-to-last, final =
  Force two-norm initial, final = 495.51134 0.40334212
  Force max component initial, final = 23.920108 0.092337174
  Final line search alpha, max atom move = 1 0.092337174
  Iterations, force evaluations = 1000 1195

timestep  1.0
fix       cg_run2  all  nvt  temp 293.0 293.0 100.0
run       100
Generated 0 of 3 mixed pair_coeff terms from arithmetic mixing rule
Step          Temp          E_bond         E_pair         PotEng         KinEng         TotEng         Press
2001   0              0.0016626551   0.20174672     0.21416291     0              0.21416291     0.1120705
Loop time of 0.124484 on 1 procs for 100 steps with 14734 atoms

unfix     cg_run2

timestep  2.0
fix       cg_run2  all  nvt  temp 293.0 293.0 100.0
run       150000
Generated 0 of 3 mixed pair_coeff terms from arithmetic mixing rule
Step          Temp          E_bond         E_pair         PotEng         KinEng         TotEng         Press
2101   0.00014776489  0.0019669822   0.19636206     0.20829963     0.0064892836   0.21478892     0.11127794
Averages over the last 751 of 1502 rows, steps 77200 to 152101:
Temp E_bond E_pair PotEng KinEng TotEng Press
292.885 2108.57 108.943 4294.05 12862.4 17156.4 7.51447
Loop time of 154.458 on 1 procs for 150000 steps with 14734 atoms

unfix     cg_run2
